<?xml version="1.0" encoding="UTF-8"?>
<!DOCTYPE population SYSTEM "http://www.matsim.org/files/dtd/population_v6.dtd">
<population>
    <!-- Agent 1: Home (1) -> Work (9) -->
    <person id="1">
        <plan selected="yes">
            <activity type="home" link="1_4" x="0" y="0" end_time="08:00:00" />
            <leg mode="car">
                <route type="links">1_4 4_5 5_6 6_9</route>
            </leg>
            <activity type="work" link="6_9" x="2000" y="2000" end_time="17:00:00" />
            <leg mode="car">
                <route type="links">9_6 6_5 5_4 4_1</route>
            </leg>
            <activity type="home" link="1_4" x="0" y="0" />
        </plan>
    </person>

    <!-- Agent 2: Home (7) -> Work (3) -->
    <person id="2">
        <plan selected="yes">
            <activity type="home" link="7_4" x="0" y="2000" end_time="08:15:00" />
            <leg mode="car">
                <route type="links">7_4 4_5 5_6 6_3</route>
            </leg>
            <activity type="work" link="6_3" x="2000" y="0" end_time="17:15:00" />
            <leg mode="car">
                <route type="links">3_2 2_5 5_8 8_7</route>
            </leg>
            <activity type="home" link="7_4" x="0" y="2000" />
        </plan>
    </person>

    <!-- Agent 3: Home (3) -> Work (7) -->
    <person id="3">
        <plan selected="yes">
            <activity type="home" link="3_6" x="2000" y="0" end_time="08:30:00" />
            <leg mode="car">
                <route type="links">3_6 6_5 5_4 4_7</route>
            </leg>
            <activity type="work" link="4_7" x="0" y="2000" end_time="17:30:00" />
            <leg mode="car">
                <route type="links">7_8 8_5 5_2 2_3</route>
            </leg>
            <activity type="home" link="3_6" x="2000" y="0" />
        </plan>
    </person>

    <!-- Agent 4: Home (1) -> Work (3) -->
    <person id="4">
        <plan selected="yes">
            <activity type="home" link="1_4" x="0" y="0" end_time="08:45:00" />
            <leg mode="car">
                <route type="links">1_2 2_3</route>
            </leg>
            <activity type="work" link="2_3" x="2000" y="0" end_time="17:45:00" />
            <leg mode="car">
                <route type="links">3_2 2_1</route>
            </leg>
            <activity type="home" link="1_4" x="0" y="0" />
        </plan>
    </person>

    <!-- Agent 5: Home (9) -> Work (1) -->
    <person id="5">
        <plan selected="yes">
            <activity type="home" link="9_6" x="2000" y="2000" end_time="08:50:00" />
            <leg mode="car">
                <route type="links">9_8 8_7 7_4 4_1</route>
            </leg>
            <activity type="work" link="4_1" x="0" y="0" end_time="17:50:00" />
            <leg mode="car">
                <route type="links">1_4 4_7 7_8 8_9</route>
            </leg>
            <activity type="home" link="9_6" x="2000" y="2000" />
        </plan>
    </person>

    <!-- Agent 6: Home (5) -> Work (5) with shopping -->
    <person id="6">
        <plan selected="yes">
            <activity type="home" link="5_8" x="1000" y="1000" end_time="09:00:00" />
            <leg mode="car">
                <route type="links">5_6 6_9 9_8</route>
            </leg>
            <activity type="shopping" link="9_8" x="1000" y="2000" end_time="10:30:00" />
            <leg mode="car">
                <route type="links">8_5</route>
            </leg>
            <activity type="work" link="5_8" x="1000" y="1000" end_time="16:30:00" />
            <leg mode="car">
                <route type="links">5_4 4_1 1_2 2_5</route>
            </leg>
            <activity type="home" link="5_8" x="1000" y="1000" />
        </plan>
    </person>

    <!-- Agent 7: Home (2) -> Work (8) -->
    <person id="7">
        <plan selected="yes">
            <activity type="home" link="2_5" x="1000" y="0" end_time="08:20:00" />
            <leg mode="car">
                <route type="links">2_5 5_8</route>
            </leg>
            <activity type="work" link="5_8" x="1000" y="2000" end_time="16:45:00" />
            <leg mode="car">
                <route type="links">8_5 5_2</route>
            </leg>
            <activity type="home" link="2_5" x="1000" y="0" />
        </plan>
    </person>

    <!-- Agent 8: Home (8) -> Work (2) -->
    <person id="8">
        <plan selected="yes">
            <activity type="home" link="8_5" x="1000" y="2000" end_time="08:10:00" />
            <leg mode="car">
                <route type="links">8_5 5_2</route>
            </leg>
            <activity type="work" link="5_2" x="1000" y="0" end_time="16:40:00" />
            <leg mode="car">
                <route type="links">2_5 5_8</route>
            </leg>
            <activity type="home" link="8_5" x="1000" y="2000" />
        </plan>
    </person>

    <!-- Agent 9: Home (4) -> Work (6) -->
    <person id="9">
        <plan selected="yes">
            <activity type="home" link="4_1" x="0" y="1000" end_time="08:25:00" />
            <leg mode="car">
                <route type="links">4_5 5_6</route>
            </leg>
            <activity type="work" link="5_6" x="2000" y="1000" end_time="17:25:00" />
            <leg mode="car">
                <route type="links">6_5 5_4</route>
            </leg>
            <activity type="home" link="4_1" x="0" y="1000" />
        </plan>
    </person>

    <!-- Agent 10: Home (6) -> Work (4) -->
    <person id="10">
        <plan selected="yes">
            <activity type="home" link="6_3" x="2000" y="1000" end_time="08:35:00" />
            <leg mode="car">
                <route type="links">6_5 5_4</route>
            </leg>
            <activity type="work" link="5_4" x="0" y="1000" end_time="17:35:00" />
            <leg mode="car">
                <route type="links">4_5 5_6</route>
            </leg>
            <activity type="home" link="6_3" x="2000" y="1000" />
        </plan>
    </person>
</population>
